!! General configuration
&HEAD CHID='Tunnel' TITLE='Test Case II ARTSS' /
&TIME T_BEGIN=0 /
&TIME T_END=3600 /

&REAC ID = 'propane reaction', SOOT_YIELD=0.1, CO_YIELD=0.05, FUEL='PROPANE'/
&MISC VISIBILITY_FACTOR=8.0/

!! Computational domain
!! &MESH XB=0, 40, 0, 6, 0, 4, IJK=100, 15, 10 /
!! &MESH XB=40, 50, 0, 6, 0, 4, IJK=50, 30, 20 /
!! &MESH XB=50, 55, 0, 6, 0, 4, IJK=50, 60, 40 /
!! &MESH XB=55, 65, 0, 6, 0, 4, IJK=50, 30, 20 /
!! &MESH XB=65, 105, 0, 6, 0, 4, IJK=100, 15, 10 /


raw input mesh: &MESH XB=0,105,0,6,0,4, IJK=1050,60,40 /
raw input decomposition: 10,6,4
raw ijk: IJK=1050,60,40
i: 1050, j: 60, k: 40
raw xb: XB=0,105,0,6,0,4
x: 0.0,105.0
y: 0.0,6.0
z: 0.0,4.0
decomposition: 10, 6, 4
lx: 105.0, dx: 10.5, di: 105
ly: 6.0000, dy: 1.0000, dj: 10
lz: 4.0000, dz: 1.0000, dk: 10
resulting number of meshes: 240
===========================
&MESH ID='1' IJK=105,10,10 XB=0.0000,10.5000,0.0000,1.0000,0.0000,1.0000 /
&MESH ID='2' IJK=105,10,10 XB=0.0000,10.5000,0.0000,1.0000,1.0000,2.0000 /
&MESH ID='3' IJK=105,10,10 XB=0.0000,10.5000,0.0000,1.0000,2.0000,3.0000 /
&MESH ID='4' IJK=105,10,10 XB=0.0000,10.5000,0.0000,1.0000,3.0000,4.0000 /
&MESH ID='5' IJK=105,10,10 XB=0.0000,10.5000,1.0000,2.0000,0.0000,1.0000 /
&MESH ID='6' IJK=105,10,10 XB=0.0000,10.5000,1.0000,2.0000,1.0000,2.0000 /
&MESH ID='7' IJK=105,10,10 XB=0.0000,10.5000,1.0000,2.0000,2.0000,3.0000 /
&MESH ID='8' IJK=105,10,10 XB=0.0000,10.5000,1.0000,2.0000,3.0000,4.0000 /
&MESH ID='9' IJK=105,10,10 XB=0.0000,10.5000,2.0000,3.0000,0.0000,1.0000 /
&MESH ID='10' IJK=105,10,10 XB=0.0000,10.5000,2.0000,3.0000,1.0000,2.0000 /
&MESH ID='11' IJK=105,10,10 XB=0.0000,10.5000,2.0000,3.0000,2.0000,3.0000 /
&MESH ID='12' IJK=105,10,10 XB=0.0000,10.5000,2.0000,3.0000,3.0000,4.0000 /
&MESH ID='13' IJK=105,10,10 XB=0.0000,10.5000,3.0000,4.0000,0.0000,1.0000 /
&MESH ID='14' IJK=105,10,10 XB=0.0000,10.5000,3.0000,4.0000,1.0000,2.0000 /
&MESH ID='15' IJK=105,10,10 XB=0.0000,10.5000,3.0000,4.0000,2.0000,3.0000 /
&MESH ID='16' IJK=105,10,10 XB=0.0000,10.5000,3.0000,4.0000,3.0000,4.0000 /
&MESH ID='17' IJK=105,10,10 XB=0.0000,10.5000,4.0000,5.0000,0.0000,1.0000 /
&MESH ID='18' IJK=105,10,10 XB=0.0000,10.5000,4.0000,5.0000,1.0000,2.0000 /
&MESH ID='19' IJK=105,10,10 XB=0.0000,10.5000,4.0000,5.0000,2.0000,3.0000 /
&MESH ID='20' IJK=105,10,10 XB=0.0000,10.5000,4.0000,5.0000,3.0000,4.0000 /
! ... 220 like lines cut



!! Properties
&MATL ID='CONCRETE', CONDUCTIVITY=1.0, SPECIFIC_HEAT=0.88, DENSITY=2100 /
&MATL ID='CARPET', CONDUCTIVITY=1.0, SPECIFIC_HEAT=0.88, DENSITY=2100 /

&SURF ID='WALL', MATL_ID='CONCRETE', COLOR='GRAY', THICKNESS=0.1 /
&SURF ID='FLOOR', MATL_ID='CARPET', COLOR='BROWN', THICKNESS=0.1 /
&SURF ID='CEILING', MATL_ID='CONCRETE', COLOR='KHAKI', THICKNESS=0.1 /
&SURF ID='OPEN', COLOR='INVISIBLE' /

!! Solid geometry
&OBST XB=1.2, 103.8, 0, 0, 0, 4, SURF_ID='WALL' /
&OBST XB=1.2, 103.8, 6, 6, 0, 4, SURF_ID='WALL' /

&OBST XB=1.2, 103.8, 0, 6, 0, 0, SURF_ID='FLOOR' /
&OBST XB=1.2, 103.8, 0, 6, 4, 4, SURF_ID='CEILING' /


!! Vents
&VENT XB=0,1.2,0,6,0,0, SURF_ID='OPEN' /
&VENT XB=0,1.2,0,6,4,4, SURF_ID='OPEN' /
&VENT XB=0,1.2,0,0,0,4, SURF_ID='OPEN' /
&VENT XB=0,1.2,6,6,0,4, SURF_ID='OPEN' /
&VENT XB=0,0,0,6,0,4, SURF_ID='OPEN' /

&VENT XB=103.8,105,0,6,0,0, SURF_ID='OPEN' /
&VENT XB=103.8,105,0,6,4,4, SURF_ID='OPEN' /
&VENT XB=103.8,105,0,0,0,4, SURF_ID='OPEN' /
&VENT XB=103.8,105,6,6,0,4, SURF_ID='OPEN' /
&VENT XB=105,105,0,6,0,4, SURF_ID='OPEN' /


!! Fire
&OBST XB=51, 54, 0.5, 5.5, 0, 0.1, SURF_ID='WALL' /
&VENT XB=51, 54, 0.5, 5.5, 0.1, 0.1, SURF_ID='FIRE', XYZ=51,0.5,0.1, SPREAD_RATE=0.07 /
&SURF ID='FIRE', HRRPUA=500.0 /

!! Output
&PROP ID='SP-CORRIENTE', QUANTITY='SPRINKLER LINK TEMPERATURE', RTI=80.0, ACTIVATION_TEMPERATURE=68.0, SMOKEVIEW_ID='sprinkler_pendent' /

!! Output
&DEVC ID='Temperature00', XYZ=5.0, 2.0, 3.9, QUANTITY='TEMPERATURE' /
&DEVC ID='Temperature01', XYZ=5.0, 4.0, 3.9, QUANTITY='TEMPERATURE' /
&DEVC ID='Temperature10', XYZ=10.0, 2.0, 3.9, QUANTITY='TEMPERATURE' /
&DEVC ID='Temperature11', XYZ=10.0, 4.0, 3.9, QUANTITY='TEMPERATURE' /
&DEVC ID='Temperature20', XYZ=15.0, 2.0, 3.9, QUANTITY='TEMPERATURE' /
&DEVC ID='Temperature21', XYZ=15.0, 4.0, 3.9, QUANTITY='TEMPERATURE' /
&DEVC ID='Temperature30', XYZ=20.0, 2.0, 3.9, QUANTITY='TEMPERATURE' /
&DEVC ID='Temperature31', XYZ=20.0, 4.0, 3.9, QUANTITY='TEMPERATURE' /
&DEVC ID='Temperature40', XYZ=25.0, 2.0, 3.9, QUANTITY='TEMPERATURE' /
&DEVC ID='Temperature41', XYZ=25.0, 4.0, 3.9, QUANTITY='TEMPERATURE' /
&DEVC ID='Temperature50', XYZ=30.0, 2.0, 3.9, QUANTITY='TEMPERATURE' /
&DEVC ID='Temperature51', XYZ=30.0, 4.0, 3.9, QUANTITY='TEMPERATURE' /
&DEVC ID='Temperature60', XYZ=35.0, 2.0, 3.9, QUANTITY='TEMPERATURE' /
&DEVC ID='Temperature61', XYZ=35.0, 4.0, 3.9, QUANTITY='TEMPERATURE' /
&DEVC ID='Temperature70', XYZ=40.0, 2.0, 3.9, QUANTITY='TEMPERATURE' /
&DEVC ID='Temperature71', XYZ=40.0, 4.0, 3.9, QUANTITY='TEMPERATURE' /
&DEVC ID='Temperature80', XYZ=45.0, 2.0, 3.9, QUANTITY='TEMPERATURE' /
&DEVC ID='Temperature81', XYZ=45.0, 4.0, 3.9, QUANTITY='TEMPERATURE' /
&DEVC ID='Temperature90', XYZ=50.0, 2.0, 3.9, QUANTITY='TEMPERATURE' /
&DEVC ID='Temperature91', XYZ=50.0, 4.0, 3.9, QUANTITY='TEMPERATURE' /
! ... 18 like lines cut

!! Output
&DEVC ID='Thermocouple00', XYZ=5.0, 2.0, 3.9, PROP_ID='SP-CORRIENTE' /
&DEVC ID='Thermocouple01', XYZ=5.0, 4.0, 3.9, PROP_ID='SP-CORRIENTE' /
&DEVC ID='Thermocouple10', XYZ=10.0, 2.0, 3.9, PROP_ID='SP-CORRIENTE' /
&DEVC ID='Thermocouple11', XYZ=10.0, 4.0, 3.9, PROP_ID='SP-CORRIENTE' /
&DEVC ID='Thermocouple20', XYZ=15.0, 2.0, 3.9, PROP_ID='SP-CORRIENTE' /
&DEVC ID='Thermocouple21', XYZ=15.0, 4.0, 3.9, PROP_ID='SP-CORRIENTE' /
&DEVC ID='Thermocouple30', XYZ=20.0, 2.0, 3.9, PROP_ID='SP-CORRIENTE' /
&DEVC ID='Thermocouple31', XYZ=20.0, 4.0, 3.9, PROP_ID='SP-CORRIENTE' /
&DEVC ID='Thermocouple40', XYZ=25.0, 2.0, 3.9, PROP_ID='SP-CORRIENTE' /
&DEVC ID='Thermocouple41', XYZ=25.0, 4.0, 3.9, PROP_ID='SP-CORRIENTE' /
&DEVC ID='Thermocouple50', XYZ=30.0, 2.0, 3.9, PROP_ID='SP-CORRIENTE' /
&DEVC ID='Thermocouple51', XYZ=30.0, 4.0, 3.9, PROP_ID='SP-CORRIENTE' /
&DEVC ID='Thermocouple60', XYZ=35.0, 2.0, 3.9, PROP_ID='SP-CORRIENTE' /
&DEVC ID='Thermocouple61', XYZ=35.0, 4.0, 3.9, PROP_ID='SP-CORRIENTE' /
&DEVC ID='Thermocouple70', XYZ=40.0, 2.0, 3.9, PROP_ID='SP-CORRIENTE' /
&DEVC ID='Thermocouple71', XYZ=40.0, 4.0, 3.9, PROP_ID='SP-CORRIENTE' /
&DEVC ID='Thermocouple80', XYZ=45.0, 2.0, 3.9, PROP_ID='SP-CORRIENTE' /
&DEVC ID='Thermocouple81', XYZ=45.0, 4.0, 3.9, PROP_ID='SP-CORRIENTE' /
&DEVC ID='Thermocouple90', XYZ=50.0, 2.0, 3.9, PROP_ID='SP-CORRIENTE' /
&DEVC ID='Thermocouple91', XYZ=50.0, 4.0, 3.9, PROP_ID='SP-CORRIENTE' /
! ... 18 like lines cut







&TAIL /